# generated using pymatgen
data_Al2O3
_symmetry_space_group_name_H-M   'P 1'
_cell_length_a   5.17795458
_cell_length_b   5.17795409
_cell_length_c   5.17795582
_cell_angle_alpha   55.28962816
_cell_angle_beta   55.28960686
_cell_angle_gamma   55.28959369
_symmetry_Int_Tables_number   1
_chemical_formula_structural   Al2O3
_chemical_formula_sum   'Al4 O6'
_cell_volume   87.4200077443
_cell_formula_units_Z   2
loop_
 _symmetry_equiv_pos_site_id
 _symmetry_equiv_pos_as_xyz
  1  'x, y, z'
loop_
 _atom_site_type_symbol
 _atom_site_label
 _atom_site_symmetry_multiplicity
 _atom_site_fract_x
 _atom_site_fract_y
 _atom_site_fract_z
 _atom_site_occupancy
  O  O1  1  0.443855  0.056145  0.750001  1
  O  O2  1  0.943855  0.250001  0.556145  1
  Al  Al3  1  0.647904  0.647903  0.647903  1
  Al  Al4  1  0.852097  0.852097  0.852097  1
  O  O5  1  0.056144  0.750000  0.443855  1
  O  O6  1  0.750001  0.443856  0.056144  1
  Al  Al7  1  0.147904  0.147903  0.147903  1
  Al  Al8  1  0.352097  0.352096  0.352096  1
  O  O9  1  0.250000  0.556144  0.943855  1
  O  O10  1  0.556144  0.943856  0.249999  1
