# generated using pymatgen
data_LiCoO2
_symmetry_space_group_name_H-M   'P 1'
_cell_length_a   4.97418933
_cell_length_b   4.97418933
_cell_length_c   4.97418933
_cell_angle_alpha   33.09497567
_cell_angle_beta   33.09497567
_cell_angle_gamma   33.09497574
_symmetry_Int_Tables_number   1
_chemical_formula_structural   LiCoO2
_chemical_formula_sum   'Li1 Co1 O2'
_cell_volume   32.6597136866
_cell_formula_units_Z   1
loop_
 _symmetry_equiv_pos_site_id
 _symmetry_equiv_pos_as_xyz
  1  'x, y, z'
loop_
 _atom_site_type_symbol
 _atom_site_label
 _atom_site_symmetry_multiplicity
 _atom_site_fract_x
 _atom_site_fract_y
 _atom_site_fract_z
 _atom_site_occupancy
  Li  Li1  1  0.500000  0.500000  0.500000  1
  O  O2  1  0.260185  0.260185  0.260185  1
  O  O3  1  0.739815  0.739815  0.739815  1
  Co  Co4  1  0.000000  0.000000  0.000000  1
